LTspice 24.0.9 for Windows
Circuit: * Z:\home\lukas\work\KiCad8\lmwb_LED_CC_Driver\LED_CC_Driver\Spice\cc_driver_led.asc
Start Time: Mon Jul  1 13:05:06 2024
Warning: Multiple definitions of model "2scr375p" Type: BJT
Warning: Multiple definitions of model "bc857b" Type: BJT
Warning: Multiple definitions of model "bc847c" Type: BJT
Warning: Multiple definitions of model "bc847b" Type: BJT
solver = Normal
Maximum thread count: 4
tnom = 27
temp = 27
method = modified trap
.dc sweep increment has wrong sign -- fixing...
Total elapsed time: 0.342 seconds.

