LTspice 24.0.9 for Windows
Circuit: * C:\users\lukas\Desktop\Link to work\git\LMWB\LED_CC_Driver\Spice\cc_driver_led.asc
Start Time: Mon Dec 23 11:08:53 2024
solver = Normal
Maximum thread count: 4
tnom = 27
temp = 27
method = modified trap
WARNING: Less than two connections to node n006.  This node is used by d10.
.dc sweep increment has wrong sign -- fixing...
Total elapsed time: 0.161 seconds.

